# generated using pymatgen
data_K2O
_symmetry_space_group_name_H-M   'P 1'
_cell_length_a   4.50201309
_cell_length_b   4.51565428
_cell_length_c   6.37500949
_cell_angle_alpha   90.00000000
_cell_angle_beta   90.00000000
_cell_angle_gamma   90.00000000
_symmetry_Int_Tables_number   1
_chemical_formula_structural   K2O
_chemical_formula_sum   'K4 O2'
_cell_volume   129.60097650
_cell_formula_units_Z   2
loop_
 _symmetry_equiv_pos_site_id
 _symmetry_equiv_pos_as_xyz
  1  'x, y, z'
loop_
 _atom_type_symbol
 _atom_type_oxidation_number
  K+  1.0
  O2-  -2.0
loop_
 _atom_site_type_symbol
 _atom_site_label
 _atom_site_symmetry_multiplicity
 _atom_site_fract_x
 _atom_site_fract_y
 _atom_site_fract_z
 _atom_site_occupancy
  K+  K0  1  0.50000000  0.99754293  0.24990177  1
  K+  K1  1  0.00000000  0.49754293  0.25009823  1
  K+  K2  1  0.00000000  0.50245707  0.74990177  1
  K+  K3  1  0.50000000  0.00245707  0.75009823  1
  O2-  O4  1  0.00000000  0.00000000  0.00000000  1
  O2-  O5  1  0.50000000  0.50000000  0.50000000  1
